REMARK  Name = UMP_6N1S.pdb
REMARK  5 active torsions:
REMARK  status: ('A' for Active; 'I' for Inactive)
REMARK    1  A    between atoms: N1_1  and  C1'_9
REMARK    2  A    between atoms: C3'_11  and  O3'_13
REMARK    3  A    between atoms: C4'_12  and  C5'_15
REMARK    4  A    between atoms: C5'_15  and  O5'_16
REMARK    5  A    between atoms: O5'_16  and  P_17
REMARK                            x       y       z     vdW  Elec       q    Type
REMARK                         _______ _______ _______ _____ _____    ______ ____
ROOT
ATOM      1  C1' UMP A 701      18.913  80.435 -33.786  0.00  0.00    +0.000 C 
ATOM      2  C2' UMP A 701      18.558  78.985 -34.076  0.00  0.00    +0.000 C 
ATOM      3  C3' UMP A 701      17.272  78.846 -33.277  0.00  0.00    +0.000 C 
ATOM      4  C4' UMP A 701      17.600  79.637 -32.016  0.00  0.00    +0.000 C 
ATOM      5  O4' UMP A 701      18.561  80.638 -32.422  0.00  0.00    +0.000 OA
ENDROOT
BRANCH   1   6
ATOM      6  N1  UMP A 701      20.340  80.795 -33.951  0.00  0.00    +0.000 N 
ATOM      7  C2  UMP A 701      20.873  80.760 -35.226  0.00  0.00    +0.000 A 
ATOM      8  N3  UMP A 701      22.194  81.122 -35.306  0.00  0.00    +0.000 N 
ATOM      9  C4  UMP A 701      23.013  81.520 -34.269  0.00  0.00    +0.000 A 
ATOM     10  C5  UMP A 701      22.387  81.542 -32.981  0.00  0.00    +0.000 A 
ATOM     11  C6  UMP A 701      21.095  81.195 -32.871  0.00  0.00    +0.000 A 
ATOM     12  O2  UMP A 701      20.231  80.427 -36.212  0.00  0.00    +0.000 OA
ATOM     13  O4  UMP A 701      24.179  81.825 -34.506  0.00  0.00    +0.000 OA
ATOM     14  H3  UMP A 701      22.613  81.094 -36.225  0.00  0.00    +0.000 HD
ENDBRANCH   1   6
BRANCH   3  15
ATOM     15  O3' UMP A 701      16.174  79.460 -33.943  0.00  0.00    +0.000 OA
ATOM     16 HO3' UMP A 701      15.394  79.414 -33.385  0.00  0.00    +0.000 HD
ENDBRANCH   3  15
BRANCH   4  17
ATOM     17  C5' UMP A 701      18.167  78.820 -30.883  0.00  0.00    +0.000 C 
BRANCH  17  18
ATOM     18  O5' UMP A 701      17.134  77.935 -30.385  0.00  0.00    +0.000 OA
BRANCH  18  19
ATOM     19  P   UMP A 701      17.507  76.401 -30.088  0.00  0.00    +0.000 P 
ATOM     20  OP1 UMP A 701      16.221  75.740 -29.637  0.00  0.00    +0.000 OA
ATOM     21  OP2 UMP A 701      18.025  75.852 -31.400  0.00  0.00    +0.000 OA
ATOM     22  OP3 UMP A 701      18.565  76.446 -29.001  0.00  0.00    +0.000 OA
ENDBRANCH  18  19
ENDBRANCH  17  18
ENDBRANCH   4  17
TORSDOF 5
